server/uncc-corvid/examples/GridPACK/dynamic_simulation_full_y/bus3000_gen_no0imp_v23_pslf.raw
0  100.000
0,   100.00, 23, 0, 1,  60.00     / PSS(R)E 15-23 RAW CREATE
0,   100.00, 23, 0, 1,  60.00     / PSS(R)E 15-23 RAW CREATE
      1, 1,     0.000,     0.000,  0.000000,  0.000000,   1,1.090990,-2.682301,'1           ',220.0000,   1
      2, 1,     0.000,     0.000,  0.000000,  0.000000,   1,1.092300,-0.900100,'2           ',220.0000,   1
      3, 1,     0.000,     0.000,  0.000000,  0.000000,   1,1.053720,-26.187412,'3           ',220.0000,   1
      4, 1,     0.000,     0.000,  0.000000,  0.000000,   1,1.053320,-26.324711,'4           ',220.0000,   1
      5, 1,     0.000,     0.000,  0.000000,  0.000000,   1,1.064470,-28.343410,'5           ',220.0000,   1
      6, 1,     0.000,     0.000,  0.000000,  0.000000,   1,1.056800,-7.689003,'6           ',220.0000,   1
      7, 1,     0.000,     0.000,  0.000000,  0.000000,   1,1.056710,-7.712503,'7           ',220.0000,   1
      8, 1,     0.000,     0.000,  0.000000,  0.000000,   1,1.064220,-16.462307,'8           ',220.0000,   1
      9, 1,     0.000,     0.000,  0.000000,  0.000000,   1,1.067310,-16.236609,'9           ',220.0000,   1
     10, 1,     0.000,     0.000,  0.000000,  0.000000,   1,1.075620,-20.729708,'10          ',220.0000,   1
     11, 1,     0.000,     0.000,  0.000000,  0.000000,   1,1.009140,-12.269305,'11          ',400.0000,   1
     12, 1,     0.000,     0.000,  0.000000,  0.000000,   1,1.010930,-11.859105,'12          ',400.0000,   1
     13, 1,     0.000,     0.000,  0.000000,  0.000000,   1,0.982580,-16.309908,'13          ',400.0000,   1
     14, 1,     0.000,     0.000,  0.000000,  0.000000,   1,1.013680,-16.903008,'14          ',220.0000,   1
     15, 1,     0.000,     0.000,  0.000000,  0.000000,   1,1.011440,-16.967808,'15          ',220.0000,   1
     16, 1,     0.000,     0.000,  0.000000,  0.000000,   1,0.982610,-21.582607,'16          ',220.0000,   1
     17, 1,     0.000,     0.000,  0.000000,  0.000000,   1,0.979740,-21.602608,'17          ',220.0000,   1
     18, 1,     0.000,     0.000,  0.000000,  0.000000,   1,1.009490,-11.211104,'18          ',400.0000,   1
     19, 1,     0.000,     0.000,  0.000000,  0.000000,   1,1.011230,-10.749905,'19          ',400.0000,   1
     20, 1,     0.000,     0.000,  0.000000,  0.000000,   1,0.987090,-20.215807,'20          ',400.0000,   1
     21, 1,     0.000,     0.000,  0.000000,  0.000000,   1,1.002950,-16.633406,'21          ',400.0000,   1
     22, 2,    10.000,    20.000,  0.000000,  0.000000,   1,1.068180,-20.448908,'22          ',220.0000,   1
     23, 2,    10.000,    20.000,  0.000000,  0.000000,   1,1.068180,-20.463509,'23          ',220.0000,   1
     24, 1,     0.000,     0.000,  0.000000,  0.000000,   1,1.063860,-6.788503,'24          ',220.0000,   1
     25, 1,     0.000,     0.000,  0.000000,  0.000000,   1,1.065190,-6.931103,'25          ',220.0000,   1
     26, 1,     0.000,     0.000,  0.000000,  0.000000,   1,1.015060,-20.233507,'26          ',220.0000,   1
     27, 1,     0.000,     0.000,  0.000000,  0.000000,   1,1.014670,-20.202707,'27          ',220.0000,   1
     28, 1,     0.000,     0.000,  0.000000,  0.000000,   1,1.015490,-15.974306,'28          ',220.0000,   1
     29, 1,     0.000,     0.000,  0.000000,  0.000000,   1,1.014510,-16.204508,'29          ',220.0000,   1
     30, 1,     0.000,     0.000,  0.000000,  0.000000,   1,1.071800,-4.219802,'30          ',220.0000,   1
     31, 1,     0.000,     0.000,  0.000000,  0.000000,   1,1.070630,-4.542502,'31          ',220.0000,   1
     32, 1,     0.000,     0.000,  0.000000,  0.000000,   1,1.005310,-15.117906,'32          ',400.0000,   1
     33, 1,     0.000,     0.000,  0.000000,  0.000000,   1,1.004750,-15.398907,'33          ',400.0000,   1
     34, 1,     0.000,     0.000,  0.000000,  0.000000,   1,0.998860,-18.836407,'34          ',400.0000,   1
     35, 1,  -312.840,   -93.968,  0.000000,  0.000000,   1,1.095220,-2.494501,'35          ',220.0000,   1
     36, 2,  -273.640,    13.133,  0.000000,  0.000000,   1,1.095450,-0.709800,'36          ',220.0000,   1
     37, 3,    59.762,     1.104,  0.000000,  0.000000,   1,1.040000, 0.000000,'37          ',400.0000,   1
     38, 2,  -620.000,   -17.069,  0.000000,  0.000000,   1,1.040000,-0.243300,'38          ',400.0000,   1
     39, 1,     0.000,     0.000,  0.000000,  0.000000,   1,1.008930,-18.494608,'39          ',220.0000,   1
     40, 1,     0.000,     0.000,  0.000000,  0.000000,   1,1.007730,-18.550108,'40          ',220.0000,   1
     41, 1,     0.000,     0.000,  0.000000,  0.000000,   1,1.034510,-2.047101,'41          ',400.0000,   1
     42, 1,     0.000,     0.000,  0.000000,  0.000000,   1,1.034000,-2.168401,'42          ',400.0000,   1
     43, 1,     0.000,     0.000,  0.000000,  0.000000,   1,1.007000,-17.309406,'43          ',220.0000,   1
     44, 1,     0.000,     0.000,  0.000000,  0.000000,   1,1.003060,-16.633905,'44          ',400.0000,   1
     45, 1,     0.000,     0.000,  0.000000,  0.000000,   1,1.046040,-9.682804,'45          ',220.0000,   1
     46, 1,     0.000,     0.000,  0.000000,  0.000000,   1,1.047350,-9.795804,'46          ',220.0000,   1
     47, 1,     0.000,     0.000,  0.000000,  0.000000,   1,1.065220,-7.442503,'47          ',220.0000,   2
     48, 1,     0.000,     0.000,  0.000000,  0.000000,   1,1.069310,-4.414102,'48          ',220.0000,   2
     49, 1,     0.000,     0.000,  0.000000,  0.000000,   1,1.080970,-2.551601,'49          ',220.0000,   2
     50, 1,     0.000,     0.000,  0.000000,  0.000000,   1,1.080720,-2.590401,'50          ',220.0000,   2
     51, 1,     0.000,     0.000,  0.000000,  0.000000,   1,1.038700,-8.319303,'51          ',220.0000,   2
     52, 1,     3.970,     1.000,  0.000000,  0.000000,   1,1.081800,-4.797102,'52          ',220.0000,   2
     53, 1,     0.000,     0.000,  0.000000,  0.000000,   1,1.082360,-4.645502,'53          ',220.0000,   2
     54, 1,     0.000,     0.000,  0.000000,  0.000000,   1,1.020830,-3.782501,'54          ',400.0000,   2
     55, 2,    13.000,    30.000,  0.000000,  0.000000,   1,1.090700,-7.062003,'55          ',220.0000,   2
     56, 1,  -165.650,   -58.930,  0.000000,  0.000000,   1,1.089130,-7.284204,'56          ',220.0000,   2
     57, 2,  -159.000,    19.668,  0.000000,  0.000000,   1,1.090910,-6.938203,'57          ',220.0000,   2
     58, 2,    26.000,    50.000,  0.000000,  0.000000,   1,1.035000,-6.895203,'58          ',400.0000,   2
     59, 2,    26.000,    50.000,  0.000000,  0.000000,   1,1.035000,-6.622003,'59          ',400.0000,   2
     60, 1,     0.000,     0.000,  0.000000,  0.000000,   1,1.076110,-5.392202,'60          ',220.0000,   2
     61, 1,     0.000,     0.000,  0.000000,  0.000000,   1,1.047980,-3.637401,'61          ',400.0000,   2
     62, 1,     0.000,     0.000,  0.000000,  0.000000,   1,1.047650,-3.710101,'62          ',400.0000,   2
     63, 1,     0.000,     0.000,  0.000000,  0.000000,   1,1.029640,-7.714903,'63          ',400.0000,   2
     64, 1,     0.000,     0.000,  0.000000,  0.000000,   1,1.051720,-6.570603,'64          ',220.0000,   2
     65, 1,     0.000,     0.000,  0.000000,  0.000000,   1,1.051320,-6.475402,'65          ',220.0000,   2
     66, 1,     0.000,     0.000,  0.000000,  0.000000,   1,1.031800,-5.260902,'66          ',400.0000,   2
     67, 1,     0.000,     0.000,  0.000000,  0.000000,   1,1.031080,-4.921802,'67          ',400.0000,   2
     68, 2,    13.000,    30.000,  0.000000,  0.000000,   1,1.087850,-0.994200,'68          ',220.0000,   2
     69, 2,  -169.000,    58.195,  0.000000,  0.000000,   1,1.086360,-0.794700,'69          ',220.0000,   2
     70, 1,     0.000,     2.250,  0.000000,  0.000000,   1,1.031020,-2.788601,'70          ',400.0000,   2
     71, 2,  -189.000,    64.179,  0.000000,  0.000000,   1,1.033020,-2.760901,'71          ',400.0000,   2
     72, 1,     0.000,     0.000,  0.000000,  0.000000,   1,1.075140,-7.801503,'72          ',220.0000,   2
     73, 1,     0.000,     0.000,  0.000000,  0.000000,   1,1.075060,-7.767003,'73          ',220.0000,   2
     74, 1,     0.000,     0.000,  0.000000,  0.000000,   1,1.075780,-4.758402,'74          ',220.0000,   2
     75, 1,     0.000,     0.000,  0.000000,  0.000000,   1,1.076330,-4.828902,'75          ',220.0000,   2
     76, 1,     0.000,     0.000,  0.000000,  0.000000,   1,1.080550,-7.535803,'76          ',220.0000,   2
     77, 1,     0.000,     0.000,  0.000000,  0.000000,   1,1.080700,-7.607503,'77          ',220.0000,   2
     78, 1,     0.000,     0.000,  0.000000,  0.000000,   1,1.043420,-3.345801,'78          ',400.0000,   2
     79, 1,     0.000,     0.000,  0.000000,  0.000000,   1,1.044200,-3.488302,'79          ',400.0000,   2
     80, 1,     0.000,     0.000,  0.000000,  0.000000,   1,1.073440,-4.252102,'80          ',220.0000,   2
     81, 1,     0.000,     0.000,  0.000000,  0.000000,   1,1.074700,-4.237201,'81          ',220.0000,   2
     82, 1,     0.000,     0.000,  0.000000,  0.000000,   1,1.054750,-5.100302,'82          ',220.0000,   2
     83, 1,     0.000,     0.000,  0.000000,  0.000000,   1,1.073990,-2.758801,'83          ',220.0000,   3
     84, 1,     6.410,     2.010,  0.000000,  0.000000,   1,1.069980,-3.174801,'84          ',220.0000,   3
     85, 1,    13.890,     5.020,  0.000000,  0.000000,   1,1.069670,-3.155701,'85          ',220.0000,   3
     86, 1,     0.000,     0.000,  0.000000,  0.000000,   1,1.064950,-1.124300,'86          ',220.0000,   3
     87, 1,     0.000,     0.000,  0.000000,  0.000000,   1,1.066460,-0.974400,'87          ',220.0000,   3
     88, 1,     0.000,     0.000,  0.000000,  0.000000,   1,1.081370, 0.811900,'88          ',220.0000,   3
     89, 1,     0.000,     0.000,  0.000000,  0.000000,   1,1.081750, 0.757200,'89          ',220.0000,   3
     90, 1,     0.000,     0.000,  0.000000,  0.000000,   1,1.041170,-3.109301,'90          ',220.0000,   3
     91, 1,     0.000,     0.000,  0.000000,  0.000000,   1,1.037950,-3.131101,'91          ',220.0000,   3
     92, 2,  -182.000,   -61.000,  0.000000,  0.000000,   1,1.077070,-0.111600,'92          ',220.0000,   3
     93, 1,  -402.000,  -194.000,  0.000000,  0.000000,   1,1.079120,-0.233700,'93          ',220.0000,   3
     94, 1,     2.780,     1.910,  0.000000,  0.000000,   1,1.058750,-0.365900,'94          ',220.0000,   3
     95, 1,     0.000,     0.000,  0.000000,  0.000000,   1,1.058900,-0.411600,'95          ',220.0000,   3
     96, 2,  -325.000,   142.057,  0.000000,  0.000000,   1,1.037500, 2.453101,'96          ',400.0000,   3
     97, 1,     0.000,     0.000,  0.000000,  0.000000,   1,1.039240, 1.141101,'97          ',400.0000,   3
     98, 1,     0.000,     0.000,  0.000000,  0.000000,   1,1.036670,-1.098601,'98          ',220.0000,   3
     99, 1,     0.000,     0.000,  0.000000,  0.000000,   1,1.077200, 0.551200,'99          ',220.0000,   3
    100, 1,     0.000,     0.000,  0.000000,  0.000000,   1,1.077180, 0.457800,'100         ',220.0000,   3
    101, 1,    38.800,    -2.700,  0.000000,  0.000000,   1,1.077100,-2.539801,'101         ',220.0000,   3
    102, 1,     0.000,     0.000,  0.000000,  0.000000,   1,1.076590,-2.566801,'102         ',220.0000,   3
    103, 1,     0.000,     0.000,  0.000000,  0.000000,   1,1.074150,-0.155500,'103         ',220.0000,   3
    104, 1,     0.000,     0.000,  0.000000,  0.000000,   1,1.072860,-0.186200,'104         ',220.0000,   3
    105, 1,     0.020,     0.950,  0.000000,  0.000000,   1,1.079190,-2.270701,'105         ',220.0000,   3
    106, 1,     0.000,     0.000,  0.000000,  0.000000,   1,1.079440,-2.272101,'106         ',220.0000,   3
    107, 1,     0.000,     0.000,  0.000000,  0.000000,   1,1.038540,-1.432301,'107         ',400.0000,   3
    108, 1,     0.000,     0.000,  0.000000,  0.000000,   1,1.038930,-1.150700,'108         ',400.0000,   3
    109, 1,     0.000,     0.000,  0.000000,  0.000000,   1,1.076680, 0.329000,'109         ',220.0000,   3
    110, 1,     0.000,     0.000,  0.000000,  0.000000,   1,1.076360, 0.359900,'110         ',220.0000,   3
    111, 1,     0.000,     0.000,  0.000000,  0.000000,   1,1.058120, 0.454500,'111         ',220.0000,   3
    112, 1,     0.000,     0.000,  0.000000,  0.000000,   1,1.057000, 0.343700,'112         ',220.0000,   3
    113, 1,    19.410,    12.710,  0.000000,  0.000000,   1,1.074300,-1.342801,'113         ',220.0000,   3
    114, 1,     0.000,     0.000,  0.000000,  0.000000,   1,1.074370,-1.452301,'114         ',220.0000,   3
    115, 1,     0.000,     0.000,  0.000000,  0.000000,   1,1.069990,-3.123502,'115         ',220.0000,   3
    116, 1,     0.000,     0.000,  0.000000,  0.000000,   1,1.070100,-3.159801,'116         ',220.0000,   3
    117, 1,     0.000,     0.000,  0.000000,  0.000000,   1,1.025490,-3.119901,'117         ',220.0000,   3
    118, 1,     0.000,     0.000,  0.000000,  0.000000,   1,1.024290,-3.083601,'118         ',220.0000,   3
    119, 2,    10.000,    44.000,  0.000000,  0.000000,   1,1.081820, 1.117800,'119         ',220.0000,   3
    120, 2,    10.000,    44.000,  0.000000,  0.000000,   1,1.081820, 0.901700,'120         ',220.0000,   3
    121, 2,     7.000,    18.000,  0.000000,  0.000000,   1,1.081820, 0.133800,'121         ',220.0000,   3
    122, 2,     8.000,    21.000,  0.000000,  0.000000,   1,1.081820, 0.312200,'122         ',220.0000,   3
    123, 1,     0.000,     0.000,  0.000000,  0.000000,   1,1.072140,-2.263601,'123         ',220.0000,   3
    124, 1,    59.400,    11.610,  0.000000,  0.000000,   1,1.072590,-2.323201,'124         ',220.0000,   3
    125, 1,     0.000,     0.000,  0.000000,  0.000000,   1,1.027170,-3.455901,'125         ',220.0000,   3
    126, 1,     0.000,     0.000,  0.000000,  0.000000,   1,1.058050, 0.401200,'126         ',220.0000,   3
    127, 1,     0.000,     0.000,  0.000000,  0.000000,   1,1.058340, 0.351000,'127         ',220.0000,   3
    128, 1,     0.000,     0.000,  0.000000,  0.000000,   1,1.058890,-0.638500,'128         ',220.0000,   3
    129, 1,     0.000,     0.000,  0.000000,  0.000000,   1,1.060550,-0.574000,'129         ',220.0000,   3
    130, 1,     0.000,     0.000,  0.000000,  0.000000,   1,1.033440,-0.635500,'130         ',400.0000,   3
    131, 1,     0.000,     0.000,  0.000000,  0.000000,   1,1.033440,-0.635500,'131         ',400.0000,   3
    132, 1,     0.000,     1.780,  0.000000,  0.000000,   1,1.075480,-0.749100,'132         ',220.0000,   3
    133, 2,     9.000,    20.000,  0.000000,  0.000000,   1,1.074680,-0.768300,'133         ',220.0000,   3
    134, 2,     6.000,    15.000,  0.000000,  0.000000,   1,1.041300,-2.268301,'134         ',220.0000,   3
    135, 1,     0.000,     0.000,  0.000000,  0.000000,   1,1.042500,-2.285301,'135         ',220.0000,   3
    136, 1,     0.000,     0.000,  0.000000,  0.000000,   1,1.040880,-3.298101,'136         ',400.0000,   3
    137, 1,     0.000,     0.000,  0.000000,  0.000000,   1,1.043860,-3.235201,'137         ',400.0000,   3
    138, 1,     0.000,     0.000,  0.000000,  0.000000,   1,1.041970,-1.457001,'138         ',400.0000,   3
    139, 1,     0.000,     0.000,  0.000000,  0.000000,   1,1.042660,-1.530801,'139         ',400.0000,   3
    140, 1,     0.000,     0.000,  0.000000,  0.000000,   1,1.018910,-3.749501,'140         ',220.0000,   3
    141, 1,     0.000,     0.000,  0.000000,  0.000000,   1,1.019230,-3.690902,'141         ',220.0000,   3
    142, 2,    18.221,    39.083,  0.000000,  0.000000,   1,1.081820, 1.905501,'142         ',220.0000,   3
    143, 2,  -163.480,    14.885,  0.000000,  0.000000,   1,1.081820, 2.067601,'143         ',220.0000,   3
    144, 2,  -177.000,    60.459,  0.000000,  0.000000,   1,1.037500, 1.116900,'144         ',400.0000,   3
    145, 1,     0.000,     0.000,  0.000000,  0.000000,   1,1.036790, 0.840700,'145         ',400.0000,   3
    146, 1,     0.000,     0.000,  0.000000,  0.000000,   1,1.075770,-2.599301,'146         ',220.0000,   3
    147, 1,     0.000,     0.000,  0.000000,  0.000000,   1,1.076170,-2.495601,'147         ',220.0000,   3
    148, 1,     0.000,     0.000,  0.000000,  0.000000,   1,1.078430, 0.074400,'148         ',220.0000,   3
    149, 1,     0.000,     0.000,  0.000000,  0.000000,   1,1.078050,-2.236501,'149         ',220.0000,   3
    150, 1,     0.000,    -0.790,  0.000000,  0.000000,   1,1.041250,-3.109901,'150         ',220.0000,   3
    151, 1,     0.000,    -0.790,  0.000000,  0.000000,   1,1.038020,-3.131701,'151         ',220.0000,   3
    152, 2,     7.700,    20.000,  0.000000,  0.000000,   1,1.065680,-12.434805,'152         ',220.0000,   4
    153, 2,     7.800,    20.000,  0.000000,  0.000000,   1,1.065900,-12.546905,'153         ',220.0000,   4
    154, 1,     0.000,     0.000,  0.000000,  0.000000,   1,1.036270,-10.001605,'154         ',220.0000,   4
    155, 1,     0.000,     0.000,  0.000000,  0.000000,   1,1.036280,-10.012704,'155         ',220.0000,   4
    156, 1,     0.000,     0.000,  0.000000,  0.000000,   1,1.007530,-11.591905,'156         ',220.0000,   4
    157, 1,     0.000,     0.000,  0.000000,  0.000000,   1,1.056700,-8.519603,'157         ',220.0000,   4
    158, 1,     0.000,     0.000,  0.000000,  0.000000,   1,1.055530,-8.633404,'158         ',220.0000,   4
    159, 1,     0.000,     0.000,  0.000000,  0.000000,   1,1.007220,-7.309303,'159         ',400.0000,   4
    160, 1,     0.000,     0.000,  0.000000,  0.000000,   1,1.006630,-7.335703,'160         ',400.0000,   4
    161, 1,     0.000,     0.000,  0.000000,  0.000000,   1,1.008470,-21.603710,'161         ',220.0000,   4
    162, 1,     0.000,     0.000,  0.000000,  0.000000,   1,1.047920,-33.605110,'162         ',220.0000,   4
    163, 1,     0.000,     0.000,  0.000000,  0.000000,   1,1.047920,-33.605110,'163         ',220.0000,   4
    164, 1,     0.000,     0.000,  0.000000,  0.000000,   1,1.022960,-28.512812,'164         ',220.0000,   4
    165, 1,     0.000,     0.000,  0.000000,  0.000000,   1,1.022960,-28.512812,'165         ',220.0000,   4
    166, 1,     0.000,     0.000,  0.000000,  0.000000,   1,1.002980,-11.880005,'166         ',220.0000,   4
    167, 1,     0.000,   -13.010,  0.000000,  0.000000,   1,1.052230,-16.546007,'167         ',220.0000,   4
    168, 1,     0.000,     0.000,  0.000000,  0.000000,   1,1.052780,-16.531506,'168         ',220.0000,   4
    169, 2,    12.000,    30.000,  0.000000,  0.000000,   1,1.078740,-32.033516,'169         ',220.0000,   4
    170, 1,  -160.090,   -74.978,  0.000000,  0.000000,   1,1.079690,-31.794113,'170         ',220.0000,   4
    171, 2,    12.000,    30.000,  0.000000,  0.000000,   1,1.031150,-24.788809,'171         ',400.0000,   4
    172, 1,  -188.000,   -71.050,  0.000000,  0.000000,   1,1.030120,-24.085209,'172         ',400.0000,   4
    173, 1,     0.000,     0.000,  0.000000,  0.000000,   1,0.972200,-21.393709,'173         ',220.0000,   4
    174, 1,     0.000,     0.000,  0.000000,  0.000000,   1,0.973170,-21.495810,'174         ',220.0000,   4
    175, 1,     0.000,     0.000,  0.000000,  0.000000,   1,0.993620,-21.199507,'175         ',220.0000,   4
    176, 1,     0.000,     0.000,  0.000000,  0.000000,   1,0.995040,-21.086409,'176         ',220.0000,   4
    177, 2,  -158.500,   -48.014,  0.000000,  0.000000,   1,1.089940,-5.358502,'177         ',220.0000,   4
    178, 1,  -616.100,  -212.343,  0.000000,  0.000000,   1,1.089830,-5.348902,'178         ',220.0000,   4
    179, 1,     0.000,     0.000,  0.000000,  0.000000,   1,1.089830,-5.348902,'179         ',220.0000,   4
    180, 2,  -167.607,   -39.357,  0.000000,  0.000000,   1,1.026620,-4.246002,'180         ',400.0000,   4
    181, 1,     0.000,     0.000,  0.000000,  0.000000,   1,1.025410,-4.333901,'181         ',400.0000,   4
    182, 1,     0.000,     0.000,  0.000000,  0.000000,   1,1.050910,-33.641617,'182         ',220.0000,   4
    183, 1,     0.000,     0.000,  0.000000,  0.000000,   1,1.050910,-33.641617,'183         ',220.0000,   4
    184, 1,     0.000,     0.000,  0.000000,  0.000000,   1,1.014910,-5.776503,'184         ',400.0000,   4
    185, 1,     0.000,     0.000,  0.000000,  0.000000,   1,0.993340,-12.888704,'185         ',400.0000,   4
    186, 1,     0.000,     0.000,  0.000000,  0.000000,   1,1.011890,-5.784802,'186         ',400.0000,   4
    187, 1,     0.000,     0.000,  0.000000,  0.000000,   1,1.013380,-5.233802,'187         ',400.0000,   4
    188, 2,    12.000,    30.000,  0.000000,  0.000000,   1,1.054550,-16.549908,'188         ',220.0000,   4
    189, 2,  -136.200,   -52.000,  0.000000,  0.000000,   1,1.053660,-16.762306,'189         ',220.0000,   4
    190, 2,    38.000,    64.000,  0.000000,  0.000000,   1,1.005000,-10.689604,'190         ',400.0000,   4
    191, 1,     0.000,     0.000,  0.000000,  0.000000,   1,1.003540,-29.199911,'191         ',220.0000,   4
    192, 1,     0.000,     0.000,  0.000000,  0.000000,   1,1.004560,-29.380112,'192         ',220.0000,   4
    193, 1,     0.000,     0.000,  0.000000,  0.000000,   1,1.045980,-33.729610,'193         ',220.0000,   4
    194, 1,     0.000,     0.000,  0.000000,  0.000000,   1,1.045850,-33.753311,'194         ',220.0000,   4
    195, 1,     0.000,     0.000,  0.000000,  0.000000,   1,1.012070,-21.281708,'195         ',220.0000,   4
    196, 1,     0.000,     0.000,  0.000000,  0.000000,   1,1.010970,-21.451908,'196         ',220.0000,   4
    197, 1,     0.000,     0.000,  0.000000,  0.000000,   1,0.974690,-17.600407,'197         ',400.0000,   4
...
0 / END OF GENERATOR DATA, BEGIN BRANCH DATA
      1,    -35,'1 ',  0.00120,  0.00890,  0.01512, 461.00, 461.00, 461.00,0.00000,000.000, 0.00000, 0.00000, 0.00000, 0.00000, 1
      2,    -36,'1 ',  0.00120,  0.00890,  0.01513, 461.00, 461.00, 461.00,0.00000,000.000, 0.00000, 0.00000, 0.00000, 0.00000, 1
      3,     -4,'1 ',  0.00002,  0.00300,  0.00000, 876.00, 876.00, 876.00,0.00000,000.000, 0.00000, 0.00000, 0.00000, 0.00000, 1
      3,    -22,'1 ',  0.01068,  0.07936,  0.12155, 231.00, 231.00, 231.00,0.00000,000.000, 0.00000, 0.00000, 0.00000, 0.00000, 1
      5,      3,'1 ',  0.00068,  0.08078,  0.00000, 160.00, 160.00, 160.00,0.999900,0.000000,0.000000,0.000000,00.00000,00.00000, 1
      6,     -7,'1 ',  0.00002,  0.00300,  0.00000, 876.00, 876.00, 876.00,0.00000,000.000, 0.00000, 0.00000, 0.00000, 0.00000, 1
      6,    -15,'1 ',  0.01300,  0.09781,  0.14013, 375.00, 375.00, 375.00,0.00000,000.000, 0.00000, 0.00000, 0.00000, 0.00000, 1
      6,    -24,'1 ',  0.00287,  0.01671,  0.02467, 295.00, 295.00, 295.00,0.00000,000.000, 0.00000, 0.00000, 0.00000, 0.00000, 1
      6,    -31,'1 ',  0.00457,  0.03351,  0.05245, 317.00, 317.00, 317.00,0.00000,000.000, 0.00000, 0.00000, 0.00000, 0.00000, 1
      7,    -35,'1 ',  0.00924,  0.05052,  0.07698, 367.86, 478.22, 295.00,0.00000,000.000, 0.00000, 0.00000, 0.00000, 0.00000, 1
      7,    -45,'1 ',  0.00494,  0.02690,  0.04225, 250.00, 250.00, 250.00,0.00000,000.000, 0.00000, 0.00000, 0.00000, 0.00000, 1
      8,     -9,'1 ',  0.00002,  0.00300,  0.00000, 876.00, 876.00, 876.00,0.00000,000.000, 0.00000, 0.00000, 0.00000, 0.00000, 1
      8,    -14,'1 ',  0.00558,  0.04147,  0.06290, 231.00, 231.00, 231.00,0.00000,000.000, 0.00000, 0.00000, 0.00000, 0.00000, 1
      9,     11,'1 ',  0.00064,  0.03050,  0.00000, 400.00, 400.00, 400.00,1.092710,0.000000,0.000000,0.000000,00.00000,00.00000, 1
      9,    -22,'1 ',  0.01469,  0.10915,  0.16676, 317.00, 317.00, 317.00,0.00000,000.000, 0.00000, 0.00000, 0.00000, 0.00000, 1
     10,      8,'1 ',  0.00079,  0.07524,  0.00000, 160.00, 160.00, 160.00,0.999900,0.000000,0.000000,0.000000,00.00000,00.00000, 1
     11,    -12,'1 ',  0.00001,  0.00300,  0.00000,1593.00,1593.00,1593.00,0.00000,000.000, 0.00000, 0.00000, 0.00000, 0.00000, 1
     11,     19,'1 ',  0.00110,  0.01271,  0.35206, 838.00, 838.00, 838.00,0.00000,000.000, 0.00000, 0.00000, 0.00000, 0.00000, 1
     11,     21,'1 ',  0.00286,  0.03355,  0.90157, 838.00, 838.00, 838.00,0.00000,000.000, 0.00000, 0.00000, 0.00000, 0.00000, 1
     12,    -32,'1 ',  0.00298,  0.03445,  0.94221, 831.00, 831.00, 831.00,0.00000,000.000, 0.00000, 0.00000, 0.00000, 0.00000, 1
     12,    -58,'1 ',  0.00150,  0.01506,  0.40320,1154.00,1154.00,1154.00,0.00000,000.000, 0.00000, 0.00000, 0.00000, 0.00000, 1
     13,     12,'1 ',  0.00069,  0.03946,  0.00000, 299.89, 389.86, 250.00,0.999900,0.000000,0.000000,0.000000,00.00000,00.00000, 1
     14,    -15,'1 ',  0.00002,  0.00300,  0.00000, 876.00, 876.00, 876.00,0.00000,000.000, 0.00000, 0.00000, 0.00000, 0.00000, 1
     14,    -27,'1 ',  0.01262,  0.09326,  0.14324, 231.00, 231.00, 231.00,0.00000,000.000, 0.00000, 0.00000, 0.00000, 0.00000, 1
     14,    -57,'1 ',  0.01457,  0.07362,  0.13344, 515.45, 670.08, 356.00,0.00000,000.000, 0.00000, 0.00000, 0.00000, 0.00000, 1
     15,    -29,'1 ',  0.00442,  0.02374,  0.04477, 339.00, 339.00, 339.00,0.00000,000.000, 0.00000, 0.00000, 0.00000, 0.00000, 1
     15,    -40,'1 ',  0.00525,  0.03847,  0.06053, 231.00, 231.00, 231.00,0.00000,000.000, 0.00000, 0.00000, 0.00000, 0.00000, 1
     15,    -43,'1 ',  0.00089,  0.00630,  0.01080, 231.00, 231.00, 231.00,0.00000,000.000, 0.00000, 0.00000, 0.00000, 0.00000, 1
     16,     14,'1 ',  0.00059,  0.07897,  0.00000, 160.00, 160.00, 160.00,0.999900,0.000000,0.000000,0.000000,00.00000,00.00000, 1
     17,     15,'1 ',  0.00062,  0.08296,  0.00000, 160.00, 160.00, 160.00,0.999900,0.000000,0.000000,0.000000,00.00000,00.00000, 1
     18,    -19,'1 ',  0.00001,  0.00300,  0.00000,1593.00,1593.00,1593.00,0.00000,000.000, 0.00000, 0.00000, 0.00000, 0.00000, 1
     19,     38,'1 ',  0.00342,  0.03928,  1.08290,1154.00,1154.00,1154.00,0.00000,000.000, 0.00000, 0.00000, 0.00000, 0.00000, 1
     20,     18,'1 ',  0.00088,  0.05709,  0.00000, 436.44, 567.37, 330.00,0.999900,0.000000,0.000000,0.000000,00.00000,00.00000, 1
     21,    -44,'1 ',  0.00023,  0.00300,  0.07296, 838.00, 838.00, 838.00,0.00000,000.000, 0.00000, 0.00000, 0.00000, 0.00000, 1
     22,    -23,'1 ',  0.00002,  0.00300,  0.00000, 876.00, 876.00, 876.00,0.00000,000.000, 0.00000, 0.00000, 0.00000, 0.00000, 1
     23,   -229,'1 ',  0.01403,  0.10413,  0.15949, 281.64, 366.13, 231.00,0.00000,000.000, 0.00000, 0.00000, 0.00000, 0.00000, 1
     24,    -25,'1 ',  0.00002,  0.00300,  0.00000, 876.00, 876.00, 876.00,0.00000,000.000, 0.00000, 0.00000, 0.00000, 0.00000, 1
     24,    -36,'1 ',  0.00585,  0.04027,  0.07161, 463.05, 601.97, 400.00,0.00000,000.000, 0.00000, 0.00000, 0.00000, 0.00000, 1
     25,    -35,'1 ',  0.00585,  0.04027,  0.07161, 400.00, 400.00, 400.00,0.00000,000.000, 0.00000, 0.00000, 0.00000, 0.00000, 1
     25,   -152,'1 ',  0.01068,  0.04750,  0.09495, 339.00, 339.00, 339.00,0.00000,000.000, 0.00000, 0.00000, 0.00000, 0.00000, 1
     26,    -27,'1 ',  0.00002,  0.00300,  0.00000, 876.00, 876.00, 876.00,0.00000,000.000, 0.00000, 0.00000, 0.00000, 0.00000, 1
     26,   -188,'1 ',  0.01436,  0.10729,  0.16081, 231.00, 231.00, 231.00,0.00000,000.000, 0.00000, 0.00000, 0.00000, 0.00000, 1
     28,    -29,'1 ',  0.00002,  0.00300,  0.00000, 876.00, 876.00, 876.00,0.00000,000.000, 0.00000, 0.00000, 0.00000, 0.00000, 1
     28,    -56,'1 ',  0.01174,  0.07014,  0.12689, 419.34, 545.14, 339.00,0.00000,000.000, 0.00000, 0.00000, 0.00000, 0.00000, 1
     30,    -31,'1 ',  0.00002,  0.00300,  0.00000, 876.00, 876.00, 876.00,0.00000,000.000, 0.00000, 0.00000, 0.00000, 0.00000, 1
     30,    -36,'1 ',  0.00399,  0.02901,  0.04808, 380.00, 380.00, 380.00,0.00000,000.000, 0.00000, 0.00000, 0.00000, 0.00000, 1
     32,    -33,'1 ',  0.00001,  0.00300,  0.00000,1593.00,1593.00,1593.00,0.00000,000.000, 0.00000, 0.00000, 0.00000, 0.00000, 1
     32,    -37,'1 ',  0.00358,  0.04122,  1.13380,1154.00,1154.00,1154.00,0.00000,000.000, 0.00000, 0.00000, 0.00000, 0.00000, 1
     32,    218,'1 ',  0.00217,  0.02513,  0.67098,1154.00,1154.00,1154.00,0.00000,000.000, 0.00000, 0.00000, 0.00000, 0.00000, 1
     34,     33,'1 ',  0.00070,  0.03652,  0.00000, 366.47, 476.41, 250.00,0.999900,0.000000,0.000000,0.000000,00.00000,00.00000, 1
     35,     37,'1 ',  0.00036,  0.02519,  0.00000, 500.00, 500.00, 500.00,1.073130,0.000000,0.000000,0.000000,00.00000,00.00000, 1
     35,    105,'1 ',  0.00919,  0.06614,  0.10451, 375.00, 375.00, 375.00,0.00000,000.000, 0.00000, 0.00000, 0.00000, 0.00000, 1
     36,     38,'1 ',  0.00036,  0.02519,  0.00000, 500.00, 500.00, 500.00,1.073130,0.000000,0.000000,0.000000,00.00000,00.00000, 1
     36,    106,'1 ',  0.00822,  0.05767,  0.09820, 400.00, 400.00, 400.00,0.00000,000.000, 0.00000, 0.00000, 0.00000, 0.00000, 1
     37,    -38,'1 ',  0.00001,  0.00300,  0.00000,1593.00,1593.00,1593.00,0.00000,000.000, 0.00000, 0.00000, 0.00000, 0.00000, 1
     37,     41,'1 ',  0.00097,  0.01052,  0.28395, 970.00, 970.00, 970.00,0.00000,000.000, 0.00000, 0.00000, 0.00000, 0.00000, 1
     37,    139,'1 ',  0.00234,  0.02677,  0.74653,1154.00,1154.00,1154.00,0.00000,000.000, 0.00000, 0.00000, 0.00000, 0.00000, 1
     38,    108,'1 ',  0.00137,  0.01569,  0.43744,1154.00,1154.00,1154.00,0.00000,000.000, 0.00000, 0.00000, 0.00000, 0.00000, 1
     38,   -184,'1 ',  0.00139,  0.01590,  0.44176,1189.64,1546.53, 838.00,0.00000,000.000, 0.00000, 0.00000, 0.00000, 0.00000, 1
     39,    -40,'1 ',  0.00002,  0.00300,  0.00000, 876.00, 876.00, 876.00,0.00000,000.000, 0.00000, 0.00000, 0.00000, 0.00000, 1
     39,   -167,'1 ',  0.01698,  0.12459,  0.19570, 231.00, 231.00, 231.00,0.00000,000.000, 0.00000, 0.00000, 0.00000, 0.00000, 1
     41,    -42,'1 ',  0.00001,  0.00300,  0.00000,1593.00,1593.00,1593.00,0.00000,000.000, 0.00000, 0.00000, 0.00000, 0.00000, 1
     41,    -97,'1 ',  0.00355,  0.03617,  0.95894, 717.00, 717.00, 717.00,0.00000,000.000, 0.00000, 0.00000, 0.00000, 0.00000, 1
     41,   -107,'1 ',  0.00097,  0.01052,  0.28395, 970.00, 970.00, 970.00,0.00000,000.000, 0.00000, 0.00000, 0.00000, 0.00000, 1
     41,    184,'1 ',  0.00126,  0.01446,  0.40160,1010.89,1314.16, 838.00,0.00000,000.000, 0.00000, 0.00000, 0.00000, 0.00000, 1
     45,    -46,'1 ',  0.00002,  0.00300,  0.00000, 876.00, 876.00, 876.00,0.00000,000.000, 0.00000, 0.00000, 0.00000, 0.00000, 1
     46,   -153,'1 ',  0.01298,  0.06738,  0.10284, 250.00, 250.00, 250.00,0.00000,000.000, 0.00000, 0.00000, 0.00000, 0.00000, 1
     47,    -64,'1 ',  0.01070,  0.06628,  0.10825, 287.00, 287.00, 287.00,0.00000,000.000, 0.00000, 0.00000, 0.00000, 0.00000, 1
     47,    -73,'1 ',  0.00657,  0.04810,  0.07270, 319.00, 319.00, 319.00,0.00000,000.000, 0.00000, 0.00000, 0.00000, 0.00000, 1
     47,    -81,'1 ',  0.01140,  0.06587,  0.09975, 274.00, 274.00, 274.00,0.00000,000.000, 0.00000, 0.00000, 0.00000, 0.00000, 1
     48,    -50,'1 ',  0.00789,  0.05868,  0.08985, 231.00, 231.00, 231.00,0.00000,000.000, 0.00000, 0.00000, 0.00000, 0.00000, 1
     49,    -50,'1 ',  0.00002,  0.00300,  0.00000, 876.00, 876.00, 876.00,0.00000,000.000, 0.00000, 0.00000, 0.00000, 0.00000, 1
     49,     68,'1 ',  0.00329,  0.02506,  0.04390, 317.00, 317.00, 317.00,0.00000,000.000, 0.00000, 0.00000, 0.00000, 0.00000, 1
     49,    -81,'1 ',  0.00452,  0.03366,  0.05156, 341.00, 341.00, 341.00,0.00000,000.000, 0.00000, 0.00000, 0.00000, 0.00000, 1
     50,    -69,'1 ',  0.00558,  0.04062,  0.06491, 341.00, 341.00, 341.00,0.00000,000.000, 0.00000, 0.00000, 0.00000, 0.00000, 1
     51,    -65,'1 ',  0.00700,  0.05138,  0.08084, 231.00, 231.00, 231.00,0.00000,000.000, 0.00000, 0.00000, 0.00000, 0.00000, 1
     52,    -53,'1 ',  0.00002,  0.00300,  0.00000, 876.00, 876.00, 876.00,0.00000,000.000, 0.00000, 0.00000, 0.00000, 0.00000, 1
     52,    -60,'1 ',  0.00242,  0.01531,  0.02249, 287.00, 287.00, 287.00,0.00000,000.000, 0.00000, 0.00000, 0.00000, 0.00000, 1
     52,    -76,'1 ',  0.01219,  0.06370,  0.09333, 266.00, 266.00, 266.00,0.00000,000.000, 0.00000, 0.00000, 0.00000, 0.00000, 1
     52,    106,'1 ',  0.01116,  0.07171,  0.10367, 267.00, 267.00, 267.00,0.00000,000.000, 0.00000, 0.00000, 0.00000, 0.00000, 1
     53,     54,'1 ',  0.00034,  0.02097,  0.00000, 500.00, 500.00, 500.00,1.075500,0.000000,0.000000,0.000000,00.00000,00.00000, 1
     53,    -75,'1 ',  0.00246,  0.01826,  0.02798, 231.00, 231.00, 231.00,0.00000,000.000, 0.00000, 0.00000, 0.00000, 0.00000, 1
     53,    124,'1 ',  0.01488,  0.08161,  0.11480, 266.00, 266.00, 266.00,0.00000,000.000, 0.00000, 0.00000, 0.00000, 0.00000, 1
     54,     70,'1 ',  0.00218,  0.02536,  0.68579, 838.00, 838.00, 838.00,0.00000,000.000, 0.00000, 0.00000, 0.00000, 0.00000, 1
     55,    -56,'1 ',  0.00002,  0.00300,  0.00000, 876.00, 876.00, 876.00,0.00000,000.000, 0.00000, 0.00000, 0.00000, 0.00000, 1
     55,    -57,'1 ',  0.00002,  0.00300,  0.00000, 876.00, 876.00, 876.00,0.00000,000.000, 0.00000, 0.00000, 0.00000, 0.00000, 1
     55,    -72,'1 ',  0.00543,  0.03733,  0.06668, 341.00, 341.00, 341.00,0.00000,000.000, 0.00000, 0.00000, 0.00000, 0.00000, 1
     55,    -76,'1 ',  0.00618,  0.04353,  0.07649, 341.00, 341.00, 341.00,0.00000,000.000, 0.00000, 0.00000, 0.00000, 0.00000, 1
     56,    -77,'1 ',  0.00618,  0.04353,  0.07649, 266.00, 266.00, 266.00,0.00000,000.000, 0.00000, 0.00000, 0.00000, 0.00000, 1
     57,     59,'1 ',  0.00034,  0.02097,  0.00000, 500.00, 500.00, 500.00,1.073130,0.000000,0.000000,0.000000,00.00000,00.00000, 1
     57,    -73,'1 ',  0.00543,  0.03733,  0.06668, 341.00, 341.00, 341.00,0.00000,000.000, 0.00000, 0.00000, 0.00000, 0.00000, 1
     58,    -59,'1 ',  0.00001,  0.00300,  0.00000,1593.00,1593.00,1593.00,0.00000,000.000, 0.00000, 0.00000, 0.00000, 0.00000, 1
     58,    -66,'1 ',  0.00184,  0.02139,  0.57770, 838.00, 838.00, 838.00,0.00000,000.000, 0.00000, 0.00000, 0.00000, 0.00000, 1
     59,    -63,'1 ',  0.00170,  0.01977,  0.53386, 838.00, 838.00, 838.00,0.00000,000.000, 0.00000, 0.00000, 0.00000, 0.00000, 1
     61,    -62,'1 ',  0.00001,  0.00300,  0.00000,1593.00,1593.00,1593.00,0.00000,000.000, 0.00000, 0.00000, 0.00000, 0.00000, 1
     61,    137,'1 ',  0.00144,  0.01446,  0.51213,1386.00,1386.00,1386.00,0.00000,000.000, 0.00000, 0.00000, 0.00000, 0.00000, 1
     61,  -3118,'1 ',  0.00223,  0.02209,  0.69011, 831.00, 831.00, 831.00,0.00000,000.000, 0.00000, 0.00000, 0.00000, 0.00000, 1
     62,     79,'1 ',  0.00119,  0.01428,  0.36666,1154.00,1154.00,1154.00,0.00000,000.000, 0.00000, 0.00000, 0.00000, 0.00000, 1
     62,  -3118,'1 ',  0.00223,  0.02209,  0.69011, 831.00, 831.00, 831.00,0.00000,000.000, 0.00000, 0.00000, 0.00000, 0.00000, 1
     64,    -65,'1 ',  0.00002,  0.00300,  0.00000, 876.00, 876.00, 876.00,0.00000,000.000, 0.00000, 0.00000, 0.00000, 0.00000, 1
     65,    -82,'1 ',  0.00302,  0.02010,  0.03069, 339.00, 339.00, 339.00,0.00000,000.000, 0.00000, 0.00000, 0.00000, 0.00000, 1
     66,    -67,'1 ',  0.00001,  0.00300,  0.00000,1593.00,1593.00,1593.00,0.00000,000.000, 0.00000, 0.00000, 0.00000, 0.00000, 1
     67,    -71,'1 ',  0.00116,  0.01300,  0.33856, 838.00, 838.00, 838.00,0.00000,000.000, 0.00000, 0.00000, 0.00000, 0.00000, 1
     68,    -69,'1 ',  0.00002,  0.00300,  0.00000, 876.00, 876.00, 876.00,0.00000,000.000, 0.00000, 0.00000, 0.00000, 0.00000, 1
     68,     70,'1 ',  0.00081,  0.03000,  0.00000, 400.00, 400.00, 400.00,1.101020,0.000000,0.000000,0.000000,00.00000,00.00000, 1
     68,   -115,'1 ',  0.00374,  0.04380,  0.10096, 476.00, 476.00, 476.00,0.00000,000.000, 0.00000, 0.00000, 0.00000, 0.00000, 1
     69,    -74,'1 ',  0.00905,  0.06723,  0.10296, 231.00, 231.00, 231.00,0.00000,000.000, 0.00000, 0.00000, 0.00000, 0.00000, 1
     70,    -71,'1 ',  0.00001,  0.00300,  0.00000,1593.00,1593.00,1593.00,0.00000,000.000, 0.00000, 0.00000, 0.00000, 0.00000, 1
     70,   -136,'1 ',  0.00169,  0.01931,  0.53814, 866.00, 866.00, 866.00,0.00000,000.000, 0.00000, 0.00000, 0.00000, 0.00000, 1
     71,    -78,'1 ',  0.00105,  0.01123,  0.28195,1119.00,1119.00,1119.00,0.00000,000.000, 0.00000, 0.00000, 0.00000, 0.00000, 1
     72,    -73,'1 ',  0.00002,  0.00300,  0.00000, 876.00, 876.00, 876.00,0.00000,000.000, 0.00000, 0.00000, 0.00000, 0.00000, 1
     72,    -77,'1 ',  0.01054,  0.06151,  0.09306, 197.00, 197.00, 197.00,0.00000,000.000, 0.00000, 0.00000, 0.00000, 0.00000, 1
     74,    -75,'1 ',  0.00002,  0.00300,  0.00000, 876.00, 876.00, 876.00,0.00000,000.000, 0.00000, 0.00000, 0.00000, 0.00000, 1
     76,    -77,'1 ',  0.00002,  0.00300,  0.00000, 876.00, 876.00, 876.00,0.00000,000.000, 0.00000, 0.00000, 0.00000, 0.00000, 1
     78,    -79,'1 ',  0.00001,  0.00300,  0.00000,1593.00,1593.00,1593.00,0.00000,000.000, 0.00000, 0.00000, 0.00000, 0.00000, 1
     78,   -136,'1 ',  0.00152,  0.01739,  0.48083, 866.00, 866.00, 866.00,0.00000,000.000, 0.00000, 0.00000, 0.00000, 0.00000, 1
     78,   -138,'1 ',  0.00468,  0.05347,  1.48880, 831.00, 831.00, 831.00,0.00000,000.000, 0.00000, 0.00000, 0.00000, 0.00000, 1
     80,    -81,'1 ',  0.00134,  0.00996,  0.01337, 287.00, 287.00, 287.00,0.00000,000.000, 0.00000, 0.00000, 0.00000, 0.00000, 1
     82,   -240,'1 ',  0.01475,  0.08595,  0.13036, 339.00, 339.00, 339.00,0.00000,000.000, 0.00000, 0.00000, 0.00000, 0.00000, 1
     83,   -106,'1 ',  0.00207,  0.01279,  0.02055, 197.00, 197.00, 197.00,0.00000,000.000, 0.00000, 0.00000, 0.00000, 0.00000, 1
     84,   -116,'1 ',  0.00079,  0.00488,  0.00724, 137.00, 137.00, 137.00,0.00000,000.000, 0.00000, 0.00000, 0.00000, 0.00000, 1
     85,   -115,'1 ',  0.00079,  0.00488,  0.00726, 137.00, 137.00, 137.00,0.00000,000.000, 0.00000, 0.00000, 0.00000, 0.00000, 1
     86,    -87,'1 ',  0.00002,  0.00300,  0.00000, 876.00, 876.00, 876.00,0.00000,000.000, 0.00000, 0.00000, 0.00000, 0.00000, 1
     86,   -118,'1 ',  0.01122,  0.07074,  0.11571, 180.00, 180.00, 180.00,0.00000,000.000, 0.00000, 0.00000, 0.00000, 0.00000, 1
     87,    -92,'1 ',  0.00213,  0.01403,  0.02260, 250.00, 250.00, 250.00,0.00000,000.000, 0.00000, 0.00000, 0.00000, 0.00000, 1
     88,    -89,'1 ',  0.00002,  0.00300,  0.00000, 876.00, 876.00, 876.00,0.00000,000.000, 0.00000, 0.00000, 0.00000, 0.00000, 1
     88,   -143,'1 ',  0.00593,  0.04093,  0.07215, 341.00, 341.00, 341.00,0.00000,000.000, 0.00000, 0.00000, 0.00000, 0.00000, 1
     89,    122,'1 ',  0.01093,  0.05919,  0.08439, 180.00, 180.00, 180.00,0.00000,000.000, 0.00000, 0.00000, 0.00000, 0.00000, 1
     90,    -91,'1 ',  0.00002,  0.00300,  0.00000, 876.00, 876.00, 876.00,0.00000,000.000, 0.00000, 0.00000, 0.00000, 0.00000, 1
     90,    -93,'1 ',  0.00519,  0.03839,  0.05875, 400.00, 400.00, 400.00,0.00000,000.000, 0.00000, 0.00000, 0.00000, 0.00000, 1
     90,   -150,'1 ',  0.00085,  0.00632,  0.00931, 457.00, 457.00, 457.00,0.00000,000.000, 0.00000, 0.00000, 0.00000, 0.00000, 1
     90,  -3114,'1 ',  0.01244,  0.06959,  0.10842, 613.76, 797.89, 412.00,0.00000,000.000, 0.00000, 0.00000, 0.00000, 0.00000, 1
     91,   -117,'1 ',  0.00159,  0.01112,  0.01913, 396.00, 396.00, 396.00,0.00000,000.000, 0.00000, 0.00000, 0.00000, 0.00000, 1
     91,   -151,'1 ',  0.00085,  0.00612,  0.00964, 457.00, 457.00, 457.00,0.00000,000.000, 0.00000, 0.00000, 0.00000, 0.00000, 1
     92,   -104,'1 ',  0.00446,  0.03041,  0.04867, 180.00, 180.00, 180.00,0.00000,000.000, 0.00000, 0.00000, 0.00000, 0.00000, 1
     92,   -129,'1 ',  0.00463,  0.02775,  0.04612, 267.00, 267.00, 267.00,0.00000,000.000, 0.00000, 0.00000, 0.00000, 0.00000, 1
     92,   -133,'1 ',  0.00184,  0.01260,  0.02239, 231.00, 231.00, 231.00,0.00000,000.000, 0.00000, 0.00000, 0.00000, 0.00000, 1
     92,   -135,'1 ',  0.00816,  0.04242,  0.06120, 314.00, 314.00, 314.00,0.00000,000.000, 0.00000, 0.00000, 0.00000, 0.00000, 1
     93,   -113,'1 ',  0.00341,  0.02442,  0.03997, 317.00, 317.00, 317.00,0.00000,000.000, 0.00000, 0.00000, 0.00000, 0.00000, 1
     93,   -132,'1 ',  0.00184,  0.01260,  0.02240, 231.00, 231.00, 231.00,0.00000,000.000, 0.00000, 0.00000, 0.00000, 0.00000, 1
     93,   -134,'1 ',  0.00816,  0.04242,  0.06120, 314.00, 314.00, 314.00,0.00000,000.000, 0.00000, 0.00000, 0.00000, 0.00000, 1
     93,    148,'1 ',  0.00192,  0.01355,  0.02300, 341.00, 341.00, 341.00,0.00000,000.000, 0.00000, 0.00000, 0.00000, 0.00000, 1
     94,    -95,'1 ',  0.00002,  0.00300,  0.00000, 876.00, 876.00, 876.00,0.00000,000.000, 0.00000, 0.00000, 0.00000, 0.00000, 1
     94,   -127,'1 ',  0.00777,  0.04128,  0.06391, 197.00, 197.00, 197.00,0.00000,000.000, 0.00000, 0.00000, 0.00000, 0.00000, 1
     95,    128,'1 ',  0.00217,  0.01459,  0.02575, 197.00, 197.00, 197.00,0.00000,000.000, 0.00000, 0.00000, 0.00000, 0.00000, 1
     96,    -97,'1 ',  0.00001,  0.00300,  0.00000,1593.00,1593.00,1593.00,0.00000,000.000, 0.00000, 0.00000, 0.00000, 0.00000, 1
     97,    145,'1 ',  0.00213,  0.02432,  0.67744,1240.00,1240.00,1240.00,0.00000,000.000, 0.00000, 0.00000, 0.00000, 0.00000, 1
     97,   -187,'1 ',  0.00194,  0.02007,  0.54307, 970.00, 970.00, 970.00,0.00000,000.000, 0.00000, 0.00000, 0.00000, 0.00000, 1
     97,   3113,'1 ',  0.00293,  0.03054,  0.95472,1206.00,1206.00,1206.00,0.00000,000.000, 0.00000, 0.00000, 0.00000, 0.00000, 1
     98,    112,'1 ',  0.00570,  0.04149,  0.06617, 341.00, 341.00, 341.00,0.00000,000.000, 0.00000, 0.00000, 0.00000, 0.00000, 1
     98,   -203,'1 ',  0.00552,  0.05948,  0.17077, 592.45, 770.18, 317.00,0.00000,000.000, 0.00000, 0.00000, 0.00000, 0.00000, 1
     99,   -100,'1 ',  0.00002,  0.00300,  0.00000, 876.00, 876.00, 876.00,0.00000,000.000, 0.00000, 0.00000, 0.00000, 0.00000, 1
     99,   -119,'1 ',  0.00145,  0.01008,  0.01719, 231.00, 231.00, 231.00,0.00000,000.000, 0.00000, 0.00000, 0.00000, 0.00000, 1
    100,   -148,'1 ',  0.00238,  0.01667,  0.02846, 341.00, 341.00, 341.00,0.00000,000.000, 0.00000, 0.00000, 0.00000, 0.00000, 1
    101,   -102,'1 ',  0.00002,  0.00300,  0.00000, 876.00, 876.00, 876.00,0.00000,000.000, 0.00000, 0.00000, 0.00000, 0.00000, 1
    101,    105,'1 ',  0.00136,  0.00990,  0.01586, 400.00, 400.00, 400.00,0.00000,000.000, 0.00000, 0.00000, 0.00000, 0.00000, 1
    102,   -146,'1 ',  0.00058,  0.00417,  0.00684, 341.00, 341.00, 341.00,0.00000,000.000, 0.00000, 0.00000, 0.00000, 0.00000, 1
    103,   -104,'1 ',  0.00002,  0.00300,  0.00000, 876.00, 876.00, 876.00,0.00000,000.000, 0.00000, 0.00000, 0.00000, 0.00000, 1
    103,   -121,'1 ',  0.00171,  0.00961,  0.01424, 250.00, 250.00, 250.00,0.00000,000.000, 0.00000, 0.00000, 0.00000, 0.00000, 1
    105,   -106,'1 ',  0.00002,  0.00300,  0.00000, 876.00, 876.00, 876.00,0.00000,000.000, 0.00000, 0.00000, 0.00000, 0.00000, 1
    105,    107,'1 ',  0.00075,  0.02445,  0.00000, 330.00, 330.00, 330.00,1.039000,0.000000,0.000000,0.000000,00.00000,00.00000, 1
    105,   -123,'1 ',  0.00390,  0.02847,  0.04498, 317.00, 317.00, 317.00,0.00000,000.000, 0.00000, 0.00000, 0.00000, 0.00000, 1
    106,    108,'1 ',  0.00040,  0.02530,  0.00000, 500.00, 500.00, 500.00,1.045700,0.000000,0.000000,0.000000,00.00000,00.00000, 1
    106,    149,'1 ',  0.00083,  0.00525,  0.00868, 250.00, 250.00, 250.00,0.00000,000.000, 0.00000, 0.00000, 0.00000, 0.00000, 1
    107,   -108,'1 ',  0.00001,  0.00300,  0.00000,1593.00,1593.00,1593.00,0.00000,000.000, 0.00000, 0.00000, 0.00000, 0.00000, 1
    108,    144,'1 ',  0.00241,  0.02782,  0.77066,1154.00,1154.00,1154.00,0.00000,000.000, 0.00000, 0.00000, 0.00000, 0.00000, 1
    109,   -110,'1 ',  0.00002,  0.00300,  0.00000, 876.00, 876.00, 876.00,0.00000,000.000, 0.00000, 0.00000, 0.00000, 0.00000, 1
    109,   -122,'1 ',  0.00194,  0.01415,  0.02230, 341.00, 341.00, 341.00,0.00000,000.000, 0.00000, 0.00000, 0.00000, 0.00000, 1
    110,   -120,'1 ',  0.00384,  0.02721,  0.04517, 231.00, 231.00, 231.00,0.00000,000.000, 0.00000, 0.00000, 0.00000, 0.00000, 1
    111,   -112,'1 ',  0.00002,  0.00300,  0.00000, 876.00, 876.00, 876.00,0.00000,000.000, 0.00000, 0.00000, 0.00000, 0.00000, 1
    111,    142,'1 ',  0.00488,  0.03362,  0.05961, 341.00, 341.00, 341.00,0.00000,000.000, 0.00000, 0.00000, 0.00000, 0.00000, 1
    113,   -114,'1 ',  0.00002,  0.00300,  0.00000, 876.00, 876.00, 876.00,0.00000,000.000, 0.00000, 0.00000, 0.00000, 0.00000, 1
    114,   -124,'1 ',  0.00316,  0.02378,  0.03527, 231.00, 231.00, 231.00,0.00000,000.000, 0.00000, 0.00000, 0.00000, 0.00000, 1
    115,   -116,'1 ',  0.00002,  0.00300,  0.00000, 876.00, 876.00, 876.00,0.00000,000.000, 0.00000, 0.00000, 0.00000, 0.00000, 1
    115,    135,'1 ',  0.01589,  0.08320,  0.11439, 266.00, 266.00, 266.00,0.00000,000.000, 0.00000, 0.00000, 0.00000, 0.00000, 1
    116,   -132,'1 ',  0.01773,  0.11678,  0.16361, 250.00, 250.00, 250.00,0.00000,000.000, 0.00000, 0.00000, 0.00000, 0.00000, 1
    117,   -118,'1 ',  0.00002,  0.00300,  0.00000, 876.00, 876.00, 876.00,0.00000,000.000, 0.00000, 0.00000, 0.00000, 0.00000, 1
    119,   -120,'1 ',  0.00002,  0.00300,  0.00000, 876.00, 876.00, 876.00,0.00000,000.000, 0.00000, 0.00000, 0.00000, 0.00000, 1
    119,   -142,'1 ',  0.00314,  0.02159,  0.03839, 341.00, 341.00, 341.00,0.00000,000.000, 0.00000, 0.00000, 0.00000, 0.00000, 1
    120,  -3114,'1 ',  0.01207,  0.06905,  0.11519, 558.42, 725.95, 412.00,0.00000,000.000, 0.00000, 0.00000, 0.00000, 0.00000, 1
    121,   -122,'1 ',  0.00002,  0.00300,  0.00000, 876.00, 876.00, 876.00,0.00000,000.000, 0.00000, 0.00000, 0.00000, 0.00000, 1
    121,    149,'1 ',  0.00537,  0.04039,  0.06005, 319.00, 319.00, 319.00,0.00000,000.000, 0.00000, 0.00000, 0.00000, 0.00000, 1
    123,   -124,'1 ',  0.00002,  0.00300,  0.00000, 876.00, 876.00, 876.00,0.00000,000.000, 0.00000, 0.00000, 0.00000, 0.00000, 1
    123,   -133,'1 ',  0.00589,  0.03506,  0.05235, 267.00, 267.00, 267.00,0.00000,000.000, 0.00000, 0.00000, 0.00000, 0.00000, 1
    125,    133,'1 ',  0.00601,  0.04147,  0.07364, 308.00, 308.00, 308.00,0.00000,000.000, 0.00000, 0.00000, 0.00000, 0.00000, 1
    125,   -140,'1 ',  0.00215,  0.01333,  0.02211, 250.00, 250.00, 250.00,0.00000,000.000, 0.00000, 0.00000, 0.00000, 0.00000, 1
    126,   -127,'1 ',  0.00002,  0.00300,  0.00000, 876.00, 876.00, 876.00,0.00000,000.000, 0.00000, 0.00000, 0.00000, 0.00000, 1
    126,   -143,'1 ',  0.00455,  0.03157,  0.05531, 231.00, 231.00, 231.00,0.00000,000.000, 0.00000, 0.00000, 0.00000, 0.00000, 1
    128,   -129,'1 ',  0.00002,  0.00300,  0.00000, 876.00, 876.00, 876.00,0.00000,000.000, 0.00000, 0.00000, 0.00000, 0.00000, 1
    130,   -131,'1 ',  0.00001,  0.00300,  0.00000,1593.00,1593.00,1593.00,0.00000,000.000, 0.00000, 0.00000, 0.00000, 0.00000, 1
    130,   -138,'1 ',  0.00091,  0.01040,  0.28989, 838.00, 838.00, 838.00,0.00000,000.000, 0.00000, 0.00000, 0.00000, 0.00000, 1
    130,    145,'1 ',  0.00092,  0.01051,  0.29293, 838.00, 838.00, 838.00,0.00000,000.000, 0.00000, 0.00000, 0.00000, 0.00000, 1
    132,   -133,'1 ',  0.00002,  0.00300,  0.00000, 876.00, 876.00, 876.00,0.00000,000.000, 0.00000, 0.00000, 0.00000, 0.00000, 1
    134,   -135,'1 ',  0.00002,  0.00300,  0.00000, 876.00, 876.00, 876.00,0.00000,000.000, 0.00000, 0.00000, 0.00000, 0.00000, 1
    134,   -141,'1 ',  0.00461,  0.02492,  0.03560, 266.00, 266.00, 266.00,0.00000,000.000, 0.00000, 0.00000, 0.00000, 0.00000, 1
    136,   -137,'1 ',  0.00001,  0.00300,  0.00000,1593.00,1593.00,1593.00,0.00000,000.000, 0.00000, 0.00000, 0.00000, 0.00000, 1
    137,   -139,'1 ',  0.00312,  0.03563,  0.99107, 831.00, 831.00, 831.00,0.00000,000.000, 0.00000, 0.00000, 0.00000, 0.00000, 1
    138,   -139,'1 ',  0.00001,  0.00300,  0.00000,1593.00,1593.00,1593.00,0.00000,000.000, 0.00000, 0.00000, 0.00000, 0.00000, 1
    140,   -141,'1 ',  0.00002,  0.00300,  0.00000, 876.00, 876.00, 876.00,0.00000,000.000, 0.00000, 0.00000, 0.00000, 0.00000, 1
    142,   -143,'1 ',  0.00002,  0.00300,  0.00000, 876.00, 876.00, 876.00,0.00000,000.000, 0.00000, 0.00000, 0.00000, 0.00000, 1
...
0 / END OF BRANCH DATA, BEGIN TRANSFORMER ADJUSTMENT DATA
0 / END OF TRANSFORMER ADJUSTMENT DATA, BEGIN AREA DATA
   1,      0,     0.0,  5.000,'AREA        '
0 / END OF AREA DATA, BEGIN TWO-TERMINAL DC DATA
0 / END OF TWO-TERMINAL DC DATA, BEGIN SWITCHED SHUNT DATA
0 / END OF SWITCHED SHUNT DATA, BEGIN IMPEDANCE CORRECTION DATA
0 / END OF IMPEDANCE CORRECTION DATA, BEGIN MULTI-TERMINAL DC DATA
0 / END OF MULTI-TERMINAL DC DATA, BEGIN MULTI-SECTION LINE DATA
0 / END OF MULTI-SECTION LINE DATA, BEGIN ZONE DATA
    1,'1           '
    2,'2           '
    3,'3           '
    4,'4           '
    5,'5           '
0 / END OF ZONE DATA, BEGIN INTER-AREA TRANSFER DATA
0 / END OF INTER-AREA TRANSFER DATA, BEGIN OWNER DATA
0 / END OF OWNER DATA, BEGIN FACTS DEVICE DATA
